Version 4
SHEET 1 2284 980
WIRE 1664 -112 1424 -112
WIRE 1664 -32 1664 -112
WIRE 1424 80 1424 -112
WIRE 1424 80 1200 80
WIRE 1536 80 1424 80
WIRE 1936 80 1792 80
WIRE 2080 80 1936 80
WIRE 2160 80 2080 80
WIRE -256 144 -336 144
WIRE -192 144 -256 144
WIRE -160 144 -192 144
WIRE 0 144 -160 144
WIRE 96 144 0 144
WIRE 368 144 176 144
WIRE 1936 144 1936 80
WIRE 2080 144 2080 80
WIRE 368 160 368 144
WIRE 672 160 368 160
WIRE 1200 160 1200 80
WIRE 1200 160 672 160
WIRE -160 192 -160 144
WIRE -336 208 -336 144
WIRE 368 208 368 160
WIRE 1664 208 1664 192
WIRE 1664 208 1584 208
WIRE 672 224 672 160
WIRE 1936 256 1936 208
WIRE 2080 256 2080 224
WIRE 2080 256 1936 256
WIRE 1664 288 1664 208
WIRE 1664 288 1296 288
WIRE 1808 288 1664 288
WIRE 1936 288 1936 256
WIRE 1808 304 1808 288
WIRE -336 336 -336 288
WIRE -160 336 -160 256
WIRE 368 352 368 288
WIRE 432 352 368 352
WIRE 560 352 512 352
WIRE 672 352 672 288
WIRE 1296 384 1296 368
WIRE 1696 384 1296 384
WIRE 496 416 448 416
WIRE 960 416 960 384
WIRE 1696 416 1696 384
WIRE 496 432 496 416
WIRE 1296 432 1296 384
WIRE 960 448 960 416
WIRE 448 464 448 416
WIRE 928 464 800 464
WIRE 1456 464 1408 464
WIRE 1472 464 1456 464
WIRE 1584 464 1584 208
WIRE 1584 464 1552 464
WIRE 416 480 304 480
WIRE 1104 480 992 480
WIRE 1232 480 1184 480
WIRE 1408 480 1408 464
WIRE 560 496 560 352
WIRE 560 496 480 496
WIRE 928 496 560 496
WIRE 1600 496 1600 464
WIRE 368 512 368 352
WIRE 416 512 368 512
WIRE 1600 512 1600 496
WIRE 1456 528 1456 464
WIRE 1568 528 1456 528
WIRE 0 544 0 144
WIRE 80 544 0 544
WIRE 304 544 304 480
WIRE 304 544 160 544
WIRE 1696 544 1696 496
WIRE 1696 544 1632 544
WIRE 304 560 304 544
WIRE 1568 560 1472 560
WIRE 448 576 448 528
WIRE 448 592 448 576
WIRE -256 672 -256 144
WIRE 304 672 304 640
WIRE -48 704 -144 704
WIRE 80 704 32 704
WIRE 144 704 80 704
WIRE 320 704 224 704
WIRE 800 704 800 464
WIRE 800 704 640 704
WIRE 80 768 80 704
WIRE 640 768 640 704
WIRE 640 768 80 768
WIRE 960 768 960 512
WIRE 960 768 800 768
WIRE 1296 768 1296 528
WIRE 1296 768 960 768
WIRE 1408 768 1408 560
WIRE 1408 768 1296 768
WIRE 1600 768 1600 576
WIRE 1600 768 1408 768
WIRE 1808 768 1808 368
WIRE 1808 768 1600 768
WIRE -256 784 -256 752
WIRE -144 784 -144 704
WIRE -144 784 -256 784
WIRE 432 784 -144 784
WIRE 432 800 432 784
WIRE 560 800 432 800
WIRE 800 816 800 768
WIRE 432 832 432 800
WIRE 560 880 560 800
WIRE 1472 880 1472 560
WIRE 1472 880 560 880
WIRE 320 928 320 704
WIRE 432 928 432 912
WIRE 432 928 320 928
WIRE 432 960 432 928
FLAG 304 672 0
FLAG -336 336 0
FLAG -192 144 VIN
FLAG 2160 80 VOUT
IOPIN 2160 80 Out
FLAG -160 336 0
FLAG 672 352 0
FLAG 1936 288 0
FLAG 800 816 0
FLAG 448 576 VIN
FLAG 960 416 VIN
FLAG 1600 496 VIN
FLAG 496 432 0
FLAG 432 960 0
SYMBOL PowerProducts\\LT3080 1664 80 R0
SYMATTR InstName U2
SYMBOL Opamps\\LT1014A 448 560 M180
SYMATTR InstName U5
SYMBOL res 288 544 R0
SYMATTR InstName R4
SYMATTR Value 10K
SYMBOL res 176 528 R90
WINDOW 0 0 56 VBottom 2
WINDOW 3 32 56 VTop 2
SYMATTR InstName R5
SYMATTR Value 10K
SYMBOL voltage -336 192 R0
WINDOW 123 0 0 Left 0
WINDOW 39 0 0 Left 0
SYMATTR InstName V1
SYMATTR Value 8
SYMBOL cap -176 192 R0
SYMATTR InstName C1
SYMATTR Value 100n
SYMBOL cap 656 224 R0
SYMATTR InstName C2
SYMATTR Value 470n
SYMBOL cap 1920 144 R0
SYMATTR InstName C3
SYMATTR Value 2.2µ
SYMBOL Opamps\\LT1014 960 416 R0
SYMATTR InstName U4
SYMBOL Opamps\\LT1014A 1600 480 R0
SYMATTR InstName U1
SYMBOL res 352 192 R0
SYMATTR InstName R2
SYMATTR Value 10K
SYMBOL res 528 336 R90
WINDOW 0 0 56 VBottom 2
WINDOW 3 32 56 VTop 2
SYMATTR InstName R3
SYMATTR Value 10K
SYMBOL res 192 128 R90
WINDOW 0 0 56 VBottom 2
WINDOW 3 32 56 VTop 2
SYMATTR InstName R1
SYMATTR Value 1
SYMBOL res 1200 464 R90
WINDOW 0 0 56 VBottom 2
WINDOW 3 32 56 VTop 2
SYMATTR InstName R6
SYMATTR Value 10K
SYMBOL npn 1232 432 R0
SYMATTR InstName Q1
SYMBOL res 1280 272 R0
SYMATTR InstName R7
SYMATTR Value 1K
SYMBOL res 1680 400 R0
SYMATTR InstName R10
SYMATTR Value 1K
SYMBOL res 1392 464 R0
SYMATTR InstName R11
SYMATTR Value 10K
SYMBOL res 1568 448 R90
WINDOW 0 0 56 VBottom 2
WINDOW 3 32 56 VTop 2
SYMATTR InstName R12
SYMATTR Value 12K
SYMBOL res 2064 128 R0
SYMATTR InstName R9
SYMATTR Value 1K
SYMBOL cap 1792 304 R0
SYMATTR InstName C4
SYMATTR Value 22µ
SYMBOL res -272 656 R0
SYMATTR InstName R8
SYMATTR Value 3K
SYMBOL res 416 816 R0
SYMATTR InstName R13
SYMATTR Value 10K
SYMBOL res 48 688 R90
WINDOW 0 0 56 VBottom 2
WINDOW 3 32 56 VTop 2
SYMATTR InstName R14
SYMATTR Value 15K
SYMBOL res 240 688 R90
WINDOW 0 0 56 VBottom 2
WINDOW 3 32 56 VTop 2
SYMATTR InstName R15
SYMATTR Value 10K
TEXT 1200 944 Left 2 !.tran 0 10m 0 10u
